OPT_V10/Two_days_first_run/powerflow_results_t37.txt
Pandapower Network Debug Info
==================================================

BUS:
       vm_pu  va_degree      p_mw    q_mvar
0   0.998779   0.349629 -0.001527  0.000836
1   0.998091   0.575139 -0.001740  0.002200
2   0.997032   0.735330 -0.000768  0.002476
3   0.997335   0.514924 -0.000749  0.003720
4   0.993908   0.440727  0.000067  0.005039
5   0.996163   0.382125  0.000544  0.006618
6   0.997049   0.495902 -0.001731  0.000916
7   0.999608   0.098421 -0.000963  0.001672
8   0.998819   0.090549 -0.000640  0.003227
9   0.999868   0.003751  0.006385  0.011902
10  0.999874   0.003614  0.005618  0.010789
11  0.999888   0.003240  0.007726  0.010808
12  0.999836   0.004646  0.004969  0.006807
13  0.999810   0.004813  0.009903  0.008792
14  0.999819   0.004783  0.010481  0.013303
15  0.999952   0.001804  0.000000  0.000000
16  0.999952   0.001810  0.000000  0.000000
17  0.999839   0.004588  0.000000  0.000000
18  0.999839   0.004599  0.000000  0.000000
19  1.000000   0.000000 -0.015052 -0.047800
20  1.000000   0.000007  0.000000  0.000000
21  1.000000   0.000000 -0.022753 -0.051453
22  1.000000   0.000007  0.000000  0.000000
--------------------------------------------------

LINE:
    p_from_mw  q_from_mvar   p_to_mw  q_to_mvar         pl_mw       ql_mvar  i_from_ka   i_to_ka      i_ka  vm_from_pu  va_from_degree  vm_to_pu  va_to_degree  loading_percent
0    0.015042     0.043800 -0.015040  -0.043798  2.097755e-06  1.635654e-06   0.001782  0.001782  0.001782    1.000000        0.000007  0.999952      0.001804         0.774994
1    0.022743     0.047454 -0.022735  -0.047448  7.448446e-06  5.807676e-06   0.002025  0.002025  0.002025    1.000000        0.000007  0.999839      0.004588         0.880618
2    0.019731     0.033501 -0.019729  -0.033500  2.091266e-06  1.630594e-06   0.001497  0.001497  0.001497    0.999952        0.001804  0.999888      0.003240         0.650681
3    0.004969     0.006807 -0.004969  -0.006807  2.457024e-08  1.915782e-08   0.000324  0.000324  0.000324    0.999839        0.004588  0.999836      0.004646         0.141058
4    0.020385     0.022096 -0.020384  -0.022095  4.943306e-07  3.854377e-07   0.001157  0.001157  0.001157    0.999839        0.004588  0.999819      0.004783         0.503173
5   -0.004702     0.009297  0.004752  -0.009257  5.076783e-05  3.958452e-05   0.015038  0.015038  0.015038    0.999952        0.001810  0.998779      0.349629         6.538116
6   -0.001138     0.007572  0.001184  -0.007536  4.549788e-05  3.547545e-05   0.011053  0.011053  0.011053    0.999839        0.004599  0.996163      0.382125         4.805819
7   -0.000960     0.001674  0.000963  -0.001672  2.516334e-06  1.962027e-06   0.002786  0.002786  0.002786    0.999839        0.004599  0.999608      0.098421         1.211124
8   -0.000530     0.008300  0.000542  -0.008291  1.189630e-05  9.275742e-06   0.012006  0.012006  0.012006    0.999839        0.004599  0.998819      0.090549         5.220021
9    0.006385     0.011903 -0.006385  -0.011902  6.310648e-08  4.920516e-08   0.000520  0.000520  0.000520    0.999874        0.003614  0.999868      0.003751         0.226064
10   0.012003     0.022692 -0.012003  -0.022691  3.223617e-07  2.513507e-07   0.000988  0.000988  0.000988    0.999888        0.003240  0.999874      0.003614         0.429643
11   0.009903     0.008792 -0.009903  -0.008792  8.580237e-08  6.690152e-08   0.000510  0.000510  0.000510    0.999819        0.004783  0.999810      0.004813         0.221659
12   0.002502    -0.004681 -0.002486   0.004694  1.673055e-05  1.304508e-05   0.007676  0.007676  0.007676    0.998091        0.575139  0.998779      0.349629         3.337209
13   0.000749    -0.003720 -0.000740   0.003727  9.664602e-06  7.535649e-06   0.005491  0.005491  0.005491    0.997335        0.514924  0.998779      0.349629         2.387580
14   0.000768    -0.002476 -0.000762   0.002481  6.118367e-06  4.770591e-06   0.003754  0.003754  0.003754    0.997032        0.735330  0.998091      0.575139         1.632084
15   0.000098     0.005063 -0.000067  -0.005039  3.127771e-05  2.438775e-05   0.007318  0.007318  0.007318    0.998819        0.090549  0.993908      0.440727         3.181762
16   0.001731    -0.000916 -0.001728   0.000918  3.359036e-06  2.619096e-06   0.002835  0.002835  0.002835    0.997049        0.495902  0.996163      0.382125         1.232662
--------------------------------------------------

TRAFO:
    p_hv_mw  q_hv_mvar   p_lv_mw  q_lv_mvar    pl_mw  ql_mvar   i_hv_ka   i_lv_ka  vm_hv_pu  va_hv_degree  vm_lv_pu  va_lv_degree  loading_percent
0 -0.004692   0.010297  0.004702  -0.009297  0.00001    0.001  0.000436  0.015038  0.999952      0.001804  0.999952      0.001810         0.113155
1 -0.002618   0.018545  0.002628  -0.017545  0.00001    0.001  0.000721  0.025611  0.999839      0.004588  0.999839      0.004599         0.187318
2  0.015052   0.047800 -0.015042  -0.043800  0.00001    0.004  0.000413  0.001782  1.000000      0.000000  1.000000      0.000007         0.125283
3  0.022753   0.051453 -0.022743  -0.047454  0.00001    0.004  0.000464  0.002025  1.000000      0.000000  1.000000      0.000007         0.140649
--------------------------------------------------
